stability_analysis/stability_analysis/data/raw/IEEE118busREE_Winter Solved.raw
@!IC, SBASE,REV,XFRRAT,NXFRAT,BASFRQ
0,   100.00, 34,     0,     0, 50.00     / PSS(R)E-34.8    WED, JUN 14 2023  11:44
 08/25/93 UW ARCHIVE           100.0  1961 W IEEE 118 BUS TE

GENERAL, THRSHZ=0.0001, PQBRAK=0.7, BLOWUP=5.0
GAUSS, ITMX=100, ACCP=1.6, ACCQ=1.6, ACCM=1.0, TOL=0.0001
NEWTON, ITMXN=20, ACCN=1.0, TOLN=0.1, VCTOLQ=0.1, VCTOLV=0.00001, DVLIM=0.99, NDVFCT=0.99
ADJUST, ADJTHR=0.005, ACCTAP=1.0, TAPLIM=0.05, SWVBND=100.0, MXTPSS=99, MXSWIM=10
TYSL, ITMXTY=20, ACCTY=1.0, TOLTY=0.00001
SOLVER, FNSL, ACTAPS=0, AREAIN=0, PHSHFT=0, DCTAPS=1, SWSHNT=1, FLATST=0, VARLIM=99, NONDIV=0
RATING, 1, "RATE1 ", "RATING SET 1                    "
RATING, 2, "RATE2 ", "RATING SET 2                    "
RATING, 3, "RATE3 ", "RATING SET 3                    "
RATING, 4, "RATE4 ", "RATING SET 4                    "
RATING, 5, "RATE5 ", "RATING SET 5                    "
RATING, 6, "RATE6 ", "RATING SET 6                    "
RATING, 7, "RATE7 ", "RATING SET 7                    "
RATING, 8, "RATE8 ", "RATING SET 8                    "
RATING, 9, "RATE9 ", "RATING SET 9                    "
RATING,10, "RATE10", "RATING SET 10                   "
RATING,11, "RATE11", "RATING SET 11                   "
RATING,12, "RATE12", "RATING SET 12                   "
0 / END OF SYSTEM-WIDE DATA, BEGIN BUS DATA
@!   I,'NAME        ', BASKV, IDE,AREA,ZONE,OWNER, VM,        VA,    NVHI,   NVLO,   EVHI,   EVLO
     1,'RIVERSDE    ', 138.0000,1,   1,   1,   1,0.99423, -28.7171,1.10000,0.90000,1.10000,0.90000
     2,'POKAGON     ', 138.0000,1,   1,   1,   1,1.00752, -27.1210,1.10000,0.90000,1.10000,0.90000
     3,'HICKRYCK    ', 138.0000,1,   1,   1,   1,0.99876, -28.1269,1.10000,0.90000,1.10000,0.90000
     4,'NWCARLSL    ', 138.0000,1,   1,   1,   1,1.01048, -26.1490,1.10000,0.90000,1.10000,0.90000
     5,'OLIVE       ', 138.0000,1,   1,   1,   1,1.01183, -26.0027,1.10000,0.90000,1.10000,0.90000
     6,'KANKAKEE    ', 138.0000,1,   1,   1,   1,1.00759, -26.7041,1.10000,0.90000,1.10000,0.90000
     7,'JACKSNRD    ', 138.0000,1,   1,   1,   1,1.01313, -26.3870,1.10000,0.90000,1.10000,0.90000
     8,'OLIVE       ', 345.0000,1,   1,   1,   1,0.98237, -25.9967,1.10000,0.90000,1.10000,0.90000
    11,'SOUTHBND    ', 138.0000,1,   1,   1,   1,1.01147, -26.2900,1.10000,0.90000,1.10000,0.90000
    12,'TWINBRCH    ', 138.0000,2,   1,   1,   1,1.02486, -25.5180,1.10000,0.90000,1.10000,0.90000
    13,'CONCORD     ', 138.0000,1,   1,   1,   1,0.99438, -26.8994,1.10000,0.90000,1.10000,0.90000
    14,'GOSHENJT    ', 138.0000,1,   1,   1,   1,1.01639, -25.6823,1.10000,0.90000,1.10000,0.90000
    15,'FTWAYNE     ', 138.0000,1,   1,   1,   1,0.99721, -24.4259,1.10000,0.90000,1.10000,0.90000
    16,'N. E.       ', 138.0000,1,   1,   1,   1,1.01559, -25.4794,1.10000,0.90000,1.10000,0.90000
    17,'SORENSON    ', 138.0000,1,   1,   1,   1,1.02105, -22.9345,1.10000,0.90000,1.10000,0.90000
    18,'MCKINLEY    ', 138.0000,1,   1,   1,   1,0.99429, -24.2749,1.10000,0.90000,1.10000,0.90000
    19,'LINCOLN     ', 138.0000,2,   1,   1,   1,0.99337, -24.0430,1.10000,0.90000,1.10000,0.90000
    20,'ADAMS       ', 138.0000,1,   1,   1,   1,0.98654, -24.8292,1.10000,0.90000,1.10000,0.90000
    21,'JAY         ', 138.0000,1,   1,   1,   1,0.98580, -24.4555,1.10000,0.90000,1.10000,0.90000
    22,'RANDOLPH    ', 138.0000,1,   1,   1,   1,0.99449, -23.2658,1.10000,0.90000,1.10000,0.90000
    23,'COLLCRNR    ', 138.0000,1,   1,   1,   1,1.01728, -20.4591,1.10000,0.90000,1.10000,0.90000
    24,'TRENTON     ', 138.0000,1,   1,   1,   1,1.02158, -16.6781,1.10000,0.90000,1.10000,0.90000
    25,'TANNRSCK    ', 138.0000,1,   1,   1,   1,1.02771, -22.5386,1.10000,0.90000,1.10000,0.90000
    26,'TANNRSCK    ', 345.0000,1,   1,   1,   1,1.00757, -22.5392,1.10000,0.90000,1.10000,0.90000
    27,'MADISON     ', 138.0000,1,   1,   1,   1,1.00588, -25.3308,1.10000,0.90000,1.10000,0.90000
    28,'MULLIN      ', 138.0000,1,   1,   1,   1,0.99665, -25.8179,1.10000,0.90000,1.10000,0.90000
    29,'GRANT       ', 138.0000,1,   1,   1,   1,0.99541, -25.4365,1.10000,0.90000,1.10000,0.90000
    30,'SORENSON    ', 345.0000,1,   1,   1,   1,0.98189, -22.9280,1.10000,0.90000,1.10000,0.90000
    31,'DEERCRK     ', 138.0000,2,   1,   1,   1,0.99885, -24.8293,1.10000,0.90000,1.10000,0.90000
    32,'DELAWARE    ', 138.0000,2,   1,   1,   1,1.01206, -23.5934,1.10000,0.90000,1.10000,0.90000
    33,'HAVILAND    ', 138.0000,1,   1,   1,   1,0.99712, -21.5284,1.10000,0.90000,1.10000,0.90000
    34,'ROCKHILL    ', 138.0000,2,   1,   1,   1,1.01879, -16.6782,1.10000,0.90000,1.10000,0.90000
    35,'WESTLIMA    ', 138.0000,1,   1,   1,   1,1.02089, -16.4486,1.10000,0.90000,1.10000,0.90000
    36,'STERLING    ', 138.0000,2,   1,   1,   1,1.02259, -16.2540,1.10000,0.90000,1.10000,0.90000
    37,'EASTLIMA    ', 138.0000,1,   1,   1,   1,1.02062, -16.4941,1.10000,0.90000,1.10000,0.90000
    38,'EASTLIMA    ', 345.0000,1,   1,   1,   1,0.98616, -16.4886,1.10000,0.90000,1.10000,0.90000
    39,'NWLIBRTY    ', 138.0000,1,   1,   1,   1,1.00687, -15.1071,1.10000,0.90000,1.10000,0.90000
    40,'WEST END    ', 138.0000,2,   1,   1,   1,0.99801, -14.2742,1.10000,0.90000,1.10000,0.90000
    41,'S.TIFFIN    ', 138.0000,1,   1,   1,   1,0.99041, -14.1832,1.10000,0.90000,1.10000,0.90000
    42,'HOWARD      ', 138.0000,1,   1,   1,   1,0.99650, -11.2061,1.10000,0.90000,1.10000,0.90000
    43,'S.KENTON    ', 138.0000,1,   1,   1,   1,0.99577, -14.7143,1.10000,0.90000,1.10000,0.90000
    44,'WMVERNON    ', 138.0000,1,   1,   1,   1,0.98331,  -9.2136,1.10000,0.90000,1.10000,0.90000
    45,'N.NEWARK    ', 138.0000,1,   1,   1,   1,0.98895,  -6.3846,1.10000,0.90000,1.10000,0.90000
    46,'W.LANCST    ', 138.0000,2,   1,   1,   1,1.02000,  -1.7367,1.10000,0.90000,1.10000,0.90000
    47,'CROOKSVL    ', 138.0000,1,   1,   1,   1,1.03186,  -2.2924,1.10000,0.90000,1.10000,0.90000
    48,'ZANESVLL    ', 138.0000,1,   1,   1,   1,1.03005,  -2.4545,1.10000,0.90000,1.10000,0.90000
    49,'PHILO       ', 138.0000,2,   1,   1,   1,1.04000,  -2.1843,1.10000,0.90000,1.10000,0.90000
    50,'WCAMBRDG    ', 138.0000,1,   1,   1,   1,1.03076,  -3.4455,1.10000,0.90000,1.10000,0.90000
    51,'NEWCMRST    ', 138.0000,1,   1,   1,   1,1.01629,  -4.9280,1.10000,0.90000,1.10000,0.90000
    52,'SCOSHOCT    ', 138.0000,1,   1,   1,   1,1.01195,  -5.5060,1.10000,0.90000,1.10000,0.90000
    53,'WOOSTER     ', 138.0000,1,   1,   1,   1,1.01364,  -5.5337,1.10000,0.90000,1.10000,0.90000
    54,'TORREY      ', 138.0000,2,   1,   1,   1,1.03000,  -4.1175,1.10000,0.90000,1.10000,0.90000
    55,'WAGENHLS    ', 138.0000,1,   1,   1,   1,1.02061,  -4.9140,1.10000,0.90000,1.10000,0.90000
    56,'SUNNYSDE    ', 138.0000,1,   1,   1,   1,1.02394,  -4.6710,1.10000,0.90000,1.10000,0.90000
    57,'WNWPHIL1    ', 138.0000,1,   1,   1,   1,1.02440,  -4.5227,1.10000,0.90000,1.10000,0.90000
    58,'WNWPHIL2    ', 138.0000,1,   1,   1,   1,1.01748,  -5.0844,1.10000,0.90000,1.10000,0.90000
    59,'TIDD        ', 138.0000,2,   1,   1,   1,1.02000,  -4.0004,1.10000,0.90000,1.10000,0.90000
    60,'SWKAMMER    ', 138.0000,1,   1,   1,   1,1.02521,  -3.7666,1.10000,0.90000,1.10000,0.90000
    61,'W.KAMMER    ', 138.0000,1,   1,   1,   1,1.02811,  -3.1818,1.10000,0.90000,1.10000,0.90000
    62,'NATRIUM     ', 138.0000,1,   1,   1,   1,1.02341,  -3.7204,1.10000,0.90000,1.10000,0.90000
    63,'TIDD        ', 345.0000,1,   1,   1,   1,1.02004,  -3.9961,1.10000,0.90000,1.10000,0.90000
    64,'KAMMER      ', 345.0000,1,   1,   1,   1,1.02812,  -3.1753,1.10000,0.90000,1.10000,0.90000
    65,'MUSKNGUM    ', 345.0000,3,   1,   1,   1,1.04000,   0.0000,1.10000,0.90000,1.10000,0.90000
    66,'MUSKNGUM    ', 138.0000,1,   1,   1,   1,1.04000,  -0.0108,1.10000,0.90000,1.10000,0.90000
    67,'SUMMERFL    ', 138.0000,1,   1,   1,   1,1.02629,  -2.5170,1.10000,0.90000,1.10000,0.90000
    68,'SPORN       ', 345.0000,1,   1,   1,   1,1.03463,   1.3804,1.10000,0.90000,1.10000,0.90000
    69,'SPORN       ', 138.0000,1,   1,   1,   1,1.03461,   1.3736,1.10000,0.90000,1.10000,0.90000
    70,'PORTSMTH    ', 138.0000,2,   1,   1,   1,1.01765,  -2.9049,1.10000,0.90000,1.10000,0.90000
    71,'NPORTSMT    ', 138.0000,1,   1,   1,   1,1.02409,  -3.3412,1.10000,0.90000,1.10000,0.90000
    72,'HILLSBRO    ', 138.0000,2,   1,   1,   1,1.02000,  -8.1240,1.10000,0.90000,1.10000,0.90000
    73,'SARGENTS    ', 138.0000,2,   1,   1,   1,1.03209,  -2.6622,1.10000,0.90000,1.10000,0.90000
    74,'BELLEFNT    ', 138.0000,1,   1,   1,   1,0.98594,  -3.0264,1.10000,0.90000,1.10000,0.90000
    75,'STHPOINT    ', 138.0000,1,   1,   1,   1,0.99522,  -1.6310,1.10000,0.90000,1.10000,0.90000
    76,'DARRAH      ', 138.0000,2,   1,   1,   1,0.99622,   1.1906,1.10000,0.90000,1.10000,0.90000
    77,'TURNER      ', 138.0000,2,   1,   1,   1,1.00835,   3.5393,1.10000,0.90000,1.10000,0.90000
    78,'CHEMICAL    ', 138.0000,1,   1,   1,   1,1.00134,   3.1269,1.10000,0.90000,1.10000,0.90000
    79,'CAPITLHL    ', 138.0000,1,   1,   1,   1,0.99892,   3.1825,1.10000,0.90000,1.10000,0.90000
    80,'CABINCRK    ', 138.0000,2,   1,   1,   1,1.02000,   4.6136,1.10000,0.90000,1.10000,0.90000
    81,'KANAWHA     ', 345.0000,1,   1,   1,   1,1.02013,   4.5979,1.10000,0.90000,1.10000,0.90000
    82,'LOGAN       ', 138.0000,1,   1,   1,   1,0.99744,   7.5286,1.10000,0.90000,1.10000,0.90000
    83,'SPRIGG      ', 138.0000,1,   1,   1,   1,0.99769,   9.2474,1.10000,0.90000,1.10000,0.90000
    84,'BETSYLNE    ', 138.0000,1,   1,   1,   1,1.00735,  12.4139,1.10000,0.90000,1.10000,0.90000
    85,'BEAVERCK    ', 138.0000,2,   1,   1,   1,1.01975,  14.2251,1.10000,0.90000,1.10000,0.90000
    86,'HAZARD      ', 138.0000,1,   1,   1,   1,1.00158,  12.9451,1.10000,0.90000,1.10000,0.90000
    88,'FREMONT     ', 138.0000,1,   1,   1,   1,1.02282,  17.2193,1.10000,0.90000,1.10000,0.90000
    89,'CLINCHRV    ', 138.0000,2,   1,   1,   1,1.04000,  21.0547,1.10000,0.90000,1.10000,0.90000
    90,'HOLSTON     ', 138.0000,2,   1,   1,   1,1.02207,  19.7185,1.10000,0.90000,1.10000,0.90000
    91,'HOLSTONT    ', 138.0000,1,   1,   1,   1,1.02649,  20.4270,1.10000,0.90000,1.10000,0.90000
    92,'SALTVLLE    ', 138.0000,2,   1,   1,   1,1.03000,  21.5566,1.10000,0.90000,1.10000,0.90000
    93,'TAZEWELL    ', 138.0000,1,   1,   1,   1,1.00881,  17.8764,1.10000,0.90000,1.10000,0.90000
    94,'SWITCHBK    ', 138.0000,1,   1,   1,   1,0.99979,  15.0411,1.10000,0.90000,1.10000,0.90000
    95,'CALDWELL    ', 138.0000,1,   1,   1,   1,0.98390,  12.0701,1.10000,0.90000,1.10000,0.90000
    96,'BAILEYSV    ', 138.0000,1,   1,   1,   1,0.98997,   9.3406,1.10000,0.90000,1.10000,0.90000
    97,'SUNDIAL     ', 138.0000,1,   1,   1,   1,0.99941,   6.6496,1.10000,0.90000,1.10000,0.90000
    98,'BRADLEY     ', 138.0000,1,   1,   1,   1,1.00831,   8.7223,1.10000,0.90000,1.10000,0.90000
    99,'HINTON      ', 138.0000,1,   1,   1,   1,1.02306,  14.7851,1.10000,0.90000,1.10000,0.90000
   100,'GLEN LYN    ', 138.0000,2,   1,   1,   1,1.03000,  18.7823,1.10000,0.90000,1.10000,0.90000
   101,'WYTHE       ', 138.0000,1,   1,   1,   1,1.01744,  19.1440,1.10000,0.90000,1.10000,0.90000
   102,'SMYTHE      ', 138.0000,1,   1,   1,   1,1.02496,  20.6615,1.10000,0.90000,1.10000,0.90000
   103,'CLAYTOR     ', 138.0000,1,   1,   1,   1,1.02114,  19.6792,1.10000,0.90000,1.10000,0.90000
   104,'HANCOCK     ', 138.0000,1,   1,   1,   1,1.01161,  19.5924,1.10000,0.90000,1.10000,0.90000
   105,'ROANOKE     ', 138.0000,2,   1,   1,   1,1.01723,  20.4201,1.10000,0.90000,1.10000,0.90000
   106,'CLOVERDL    ', 138.0000,1,   1,   1,   1,1.01222,  19.1411,1.10000,0.90000,1.10000,0.90000
   107,'REUSENS     ', 138.0000,2,   1,   1,   1,1.01964,  19.2607,1.10000,0.90000,1.10000,0.90000
   108,'BLAINE      ', 138.0000,1,   1,   1,   1,1.01925,  21.7255,1.10000,0.90000,1.10000,0.90000
   109,'FRANKLIN    ', 138.0000,1,   1,   1,   1,1.02029,  22.2915,1.10000,0.90000,1.10000,0.90000
   110,'FIELDALE    ', 138.0000,2,   1,   1,   1,1.02701,  24.0879,1.10000,0.90000,1.10000,0.90000
   112,'DANVILLE    ', 138.0000,2,   1,   1,   1,1.04000,  26.7438,1.10000,0.90000,1.10000,0.90000
   113,'DEER CRK    ', 138.0000,2,   1,   1,   1,1.02054, -21.4606,1.10000,0.90000,1.10000,0.90000
   114,'WMEDFORD    ', 138.0000,1,   1,   1,   1,1.00429, -24.8671,1.10000,0.90000,1.10000,0.90000
   115,'MEDFORD     ', 138.0000,1,   1,   1,   1,1.00344, -25.0381,1.10000,0.90000,1.10000,0.90000
   117,'COREY       ', 138.0000,1,   1,   1,   1,1.00831, -27.0444,1.10000,0.90000,1.10000,0.90000
   118,'WHUNTNGD    ', 138.0000,1,   1,   1,   1,0.98925,  -0.7348,1.10000,0.90000,1.10000,0.90000
0 / END OF BUS DATA, BEGIN LOAD DATA
@!   I,'ID',STAT,AREA,ZONE,      PL,        QL,        IP,        IQ,        YP,        YQ, OWNER,SCALE,INTRPT,  DGENP,     DGENQ, DGENF
     1,'1 ',   1,   1,   1,     0.000,     0.000,    54.454,     0.000,     0.000,    -8.761,   1,    1,  0,     0.000,     0.000,   0
     2,'1 ',   1,   1,   1,     0.000,     0.000,    21.072,     0.000,     0.000,    -9.408,   1,    1,  0,     0.000,     0.000,   0
     3,'1 ',   1,   1,   1,     0.000,     0.000,    41.452,     0.000,     0.000,   -10.646,   1,    1,  0,     0.000,     0.000,   0
     4,'1 ',   1,   1,   1,     0.000,     0.000,    31.520,     0.000,     0.000,   -12.477,   1,    1,  0,     0.000,     0.000,   0
     6,'1 ',   1,   1,   1,     0.000,     0.000,    54.784,     0.000,     0.000,   -22.999,   1,    1,  0,     0.000,     0.000,   0
     7,'1 ',   1,   1,   1,     0.000,     0.000,    19.909,     0.000,     0.000,    -2.065,   1,    1,  0,     0.000,     0.000,   0
    11,'1 ',   1,   1,   1,     0.000,     0.000,    73.467,     0.000,     0.000,   -23.869,   1,    1,  0,     0.000,     0.000,   0
    12,'1 ',   1,   1,   1,     0.000,     0.000,    48.680,     0.000,     0.000,   -10.111,   1,    1,  0,     0.000,     0.000,   0
    13,'1 ',   1,   1,   1,     0.000,     0.000,    36.294,     0.000,     0.000,   -17.183,   1,    1,  0,     0.000,     0.000,   0
    14,'1 ',   1,   1,   1,     0.000,     0.000,    14.620,     0.000,     0.000,    -1.026,   1,    1,  0,     0.000,     0.000,   0
    15,'1 ',   1,   1,   1,     0.000,     0.000,    95.807,     0.000,     0.000,   -32.028,   1,    1,  0,     0.000,     0.000,   0
    16,'1 ',   1,   1,   1,     0.000,     0.000,    26.133,     0.000,     0.000,   -10.297,   1,    1,  0,     0.000,     0.000,   0
    17,'1 ',   1,   1,   1,     0.000,     0.000,    11.439,     0.000,     0.000,    -3.050,   1,    1,  0,     0.000,     0.000,   0
    18,'1 ',   1,   1,   1,     0.000,     0.000,    64.056,     0.000,     0.000,   -36.506,   1,    1,  0,     0.000,     0.000,   0
    19,'1 ',   1,   1,   1,     0.000,     0.000,    48.089,     0.000,     0.000,   -26.895,   1,    1,  0,     0.000,     0.000,   0
    20,'1 ',   1,   1,   1,     0.000,     0.000,    19.371,     0.000,     0.000,    -3.267,   1,    1,  0,     0.000,     0.000,   0
    21,'1 ',   1,   1,   1,     0.000,     0.000,    15.074,     0.000,     0.000,    -8.736,   1,    1,  0,     0.000,     0.000,   0
    22,'1 ',   1,   1,   1,     0.000,     0.000,    10.679,     0.000,     0.000,    -5.369,   1,    1,  0,     0.000,     0.000,   0
    23,'1 ',   1,   1,   1,     0.000,     0.000,     7.304,     0.000,     0.000,    -3.073,   1,    1,  0,     0.000,     0.000,   0
    27,'1 ',   1,   1,   1,     0.000,     0.000,    65.435,     0.000,     0.000,   -13.639,   1,    1,  0,     0.000,     0.000,   0
    28,'1 ',   1,   1,   1,     0.000,     0.000,    18.111,     0.000,     0.000,    -7.480,   1,    1,  0,     0.000,     0.000,   0
    29,'1 ',   1,   1,   1,     0.000,     0.000,    25.597,     0.000,     0.000,    -4.289,   1,    1,  0,     0.000,     0.000,   0
    31,'1 ',   1,   1,   1,     0.000,     0.000,    45.703,     0.000,     0.000,   -28.726,   1,    1,  0,     0.000,     0.000,   0
    32,'1 ',   1,   1,   1,     0.000,     0.000,    61.884,     0.000,     0.000,   -23.841,   1,    1,  0,     0.000,     0.000,   0
    33,'1 ',   1,   1,   1,     0.000,     0.000,    24.490,     0.000,     0.000,    -9.605,   1,    1,  0,     0.000,     0.000,   0
    34,'1 ',   1,   1,   1,     0.000,     0.000,    61.475,     0.000,     0.000,   -26.591,   1,    1,  0,     0.000,     0.000,   0
    35,'1 ',   1,   1,   1,     0.000,     0.000,    34.313,     0.000,     0.000,    -9.163,   1,    1,  0,     0.000,     0.000,   0
    36,'1 ',   1,   1,   1,     0.000,     0.000,    32.183,     0.000,     0.000,   -17.261,   1,    1,  0,     0.000,     0.000,   0
    37,'1 ',   1,   1,   1,     0.000,     0.000,    26.454,     0.000,     0.000,   -10.560,   1,    1,  0,     0.000,     0.000,   0
    40,'1 ',   1,   1,   1,     0.000,     0.000,    20.040,     0.000,     0.000,   -23.092,   1,    1,  0,     0.000,     0.000,   0
    41,'1 ',   1,   1,   1,     0.000,     0.000,    37.358,     0.000,     0.000,   -10.195,   1,    1,  0,     0.000,     0.000,   0
    42,'1 ',   1,   1,   1,     0.000,     0.000,    37.130,     0.000,     0.000,   -23.162,   1,    1,  0,     0.000,     0.000,   0
    43,'1 ',   1,   1,   1,     0.000,     0.000,    18.076,     0.000,     0.000,    -7.060,   1,    1,  0,     0.000,     0.000,   0
    44,'1 ',   1,   1,   1,     0.000,     0.000,    16.272,     0.000,     0.000,    -8.274,   1,    1,  0,     0.000,     0.000,   0
    45,'1 ',   1,   1,   1,     0.000,     0.000,    53.592,     0.000,     0.000,   -22.494,   1,    1,  0,     0.000,     0.000,   0
    46,'1 ',   1,   1,   1,     0.000,     0.000,    27.451,     0.000,     0.000,    -9.612,   1,    1,  0,     0.000,     0.000,   0
    47,'1 ',   1,   1,   1,     0.000,     0.000,    32.950,     0.000,     0.000,     0.000,   1,    1,  0,     0.000,     0.000,   0
    48,'1 ',   1,   1,   1,     0.000,     0.000,    19.416,     0.000,     0.000,   -10.368,   1,    1,  0,     0.000,     0.000,   0
    49,'1 ',   1,   1,   1,     0.000,     0.000,    83.654,     0.000,     0.000,   -27.737,   1,    1,  0,     0.000,     0.000,   0
    50,'1 ',   1,   1,   1,     0.000,     0.000,    16.493,     0.000,     0.000,    -3.765,   1,    1,  0,     0.000,     0.000,   0
    51,'1 ',   1,   1,   1,     0.000,     0.000,    16.727,     0.000,     0.000,    -7.746,   1,    1,  0,     0.000,     0.000,   0
    52,'1 ',   1,   1,   1,     0.000,     0.000,    17.787,     0.000,     0.000,    -4.883,   1,    1,  0,     0.000,     0.000,   0
    53,'1 ',   1,   1,   1,     0.000,     0.000,    22.690,     0.000,     0.000,   -10.706,   1,    1,  0,     0.000,     0.000,   0
    54,'1 ',   1,   1,   1,     0.000,     0.000,   109.709,     0.000,     0.000,   -30.163,   1,    1,  0,     0.000,     0.000,   0
    55,'1 ',   1,   1,   1,     0.000,     0.000,    61.728,     0.000,     0.000,   -21.120,   1,    1,  0,     0.000,     0.000,   0
    56,'1 ',   1,   1,   1,     0.000,     0.000,    82.036,     0.000,     0.000,   -17.168,   1,    1,  0,     0.000,     0.000,   0
    57,'1 ',   1,   1,   1,     0.000,     0.000,    11.714,     0.000,     0.000,    -2.859,   1,    1,  0,     0.000,     0.000,   0
    58,'1 ',   1,   1,   1,     0.000,     0.000,    11.794,     0.000,     0.000,    -2.898,   1,    1,  0,     0.000,     0.000,   0
    59,'1 ',   1,   1,   1,     0.000,     0.000,   271.569,     0.000,     0.000,  -108.612,   1,    1,  0,     0.000,     0.000,   0
    60,'1 ',   1,   1,   1,     0.000,     0.000,    76.082,     0.000,     0.000,    -2.854,   1,    1,  0,     0.000,     0.000,   0
    62,'1 ',   1,   1,   1,     0.000,     0.000,    75.239,     0.000,     0.000,   -13.367,   1,    1,  0,     0.000,     0.000,   0
    66,'1 ',   1,   1,   1,     0.000,     0.000,    37.500,     0.000,     0.000,   -16.642,   1,    1,  0,     0.000,     0.000,   0
    67,'1 ',   1,   1,   1,     0.000,     0.000,    27.283,     0.000,     0.000,    -6.646,   1,    1,  0,     0.000,     0.000,   0
    70,'1 ',   1,   1,   1,     0.000,     0.000,    64.855,     0.000,     0.000,   -19.312,   1,    1,  0,     0.000,     0.000,   0
    74,'1 ',   1,   1,   1,     0.000,     0.000,    68.970,     0.000,     0.000,   -27.776,   1,    1,  0,     0.000,     0.000,   0
    75,'1 ',   1,   1,   1,     0.000,     0.000,    47.226,     0.000,     0.000,   -11.106,   1,    1,  0,     0.000,     0.000,   0
    76,'1 ',   1,   1,   1,     0.000,     0.000,    68.258,     0.000,     0.000,   -36.274,   1,    1,  0,     0.000,     0.000,   0
    77,'1 ',   1,   1,   1,     0.000,     0.000,    60.495,     0.000,     0.000,   -27.538,   1,    1,  0,     0.000,     0.000,   0
    78,'1 ',   1,   1,   1,     0.000,     0.000,    70.905,     0.000,     0.000,   -25.930,   1,    1,  0,     0.000,     0.000,   0
    79,'1 ',   1,   1,   1,     0.000,     0.000,    39.042,     0.000,     0.000,   -32.069,   1,    1,  0,     0.000,     0.000,   0
    80,'1 ',   1,   1,   1,     0.000,     0.000,   127.451,     0.000,     0.000,   -24.990,   1,    1,  0,     0.000,     0.000,   0
    82,'1 ',   1,   1,   1,     0.000,     0.000,    54.139,     0.000,     0.000,   -27.139,   1,    1,  0,     0.000,     0.000,   0
    83,'1 ',   1,   1,   1,     0.000,     0.000,    20.046,     0.000,     0.000,   -10.046,   1,    1,  0,     0.000,     0.000,   0
    84,'1 ',   1,   1,   1,     0.000,     0.000,    10.920,     0.000,     0.000,    -6.898,   1,    1,  0,     0.000,     0.000,   0
    85,'1 ',   1,   1,   1,     0.000,     0.000,    23.535,     0.000,     0.000,   -14.425,   1,    1,  0,     0.000,     0.000,   0
    86,'1 ',   1,   1,   1,     0.000,     0.000,    20.967,     0.000,     0.000,    -9.969,   1,    1,  0,     0.000,     0.000,   0
    88,'1 ',   1,   1,   1,     0.000,     0.000,    46.929,     0.000,     0.000,    -9.559,   1,    1,  0,     0.000,     0.000,   0
    90,'1 ',   1,   1,   1,     0.000,     0.000,    76.316,     0.000,     0.000,   -40.206,   1,    1,  0,     0.000,     0.000,   0
    92,'1 ',   1,   1,   1,     0.000,     0.000,    63.107,     0.000,     0.000,    -9.426,   1,    1,  0,     0.000,     0.000,   0
    93,'1 ',   1,   1,   1,     0.000,     0.000,    11.895,     0.000,     0.000,    -6.878,   1,    1,  0,     0.000,     0.000,   0
    94,'1 ',   1,   1,   1,     0.000,     0.000,    30.006,     0.000,     0.000,   -16.007,   1,    1,  0,     0.000,     0.000,   0
    95,'1 ',   1,   1,   1,     0.000,     0.000,    42.687,     0.000,     0.000,   -32.023,   1,    1,  0,     0.000,     0.000,   0
    96,'1 ',   1,   1,   1,     0.000,     0.000,    38.385,     0.000,     0.000,   -15.306,   1,    1,  0,     0.000,     0.000,   0
    97,'1 ',   1,   1,   1,     0.000,     0.000,    15.009,     0.000,     0.000,    -9.011,   1,    1,  0,     0.000,     0.000,   0
    98,'1 ',   1,   1,   1,     0.000,     0.000,    33.720,     0.000,     0.000,    -7.869,   1,    1,  0,     0.000,     0.000,   0
   100,'1 ',   1,   1,   1,     0.000,     0.000,    35.922,     0.000,     0.000,   -16.967,   1,    1,  0,     0.000,     0.000,   0
   101,'1 ',   1,   1,   1,     0.000,     0.000,    21.623,     0.000,     0.000,   -14.490,   1,    1,  0,     0.000,     0.000,   0
   102,'1 ',   1,   1,   1,     0.000,     0.000,     4.878,     0.000,     0.000,    -2.856,   1,    1,  0,     0.000,     0.000,   0
   103,'1 ',   1,   1,   1,     0.000,     0.000,    22.524,     0.000,     0.000,   -15.344,   1,    1,  0,     0.000,     0.000,   0
   104,'1 ',   1,   1,   1,     0.000,     0.000,    37.564,     0.000,     0.000,   -24.430,   1,    1,  0,     0.000,     0.000,   0
   105,'1 ',   1,   1,   1,     0.000,     0.000,    30.475,     0.000,     0.000,   -25.127,   1,    1,  0,     0.000,     0.000,   0
   106,'1 ',   1,   1,   1,     0.000,     0.000,    42.481,     0.000,     0.000,   -15.616,   1,    1,  0,     0.000,     0.000,   0
   107,'1 ',   1,   1,   1,     0.000,     0.000,    27.461,     0.000,     0.000,   -11.542,   1,    1,  0,     0.000,     0.000,   0
   108,'1 ',   1,   1,   1,     0.000,     0.000,     1.962,     0.000,     0.000,    -0.963,   1,    1,  0,     0.000,     0.000,   0
   109,'1 ',   1,   1,   1,     0.000,     0.000,     7.841,     0.000,     0.000,    -2.882,   1,    1,  0,     0.000,     0.000,   0
   110,'1 ',   1,   1,   1,     0.000,     0.000,    37.974,     0.000,     0.000,   -28.443,   1,    1,  0,     0.000,     0.000,   0
   112,'1 ',   1,   1,   1,     0.000,     0.000,    24.038,     0.000,     0.000,   -12.019,   1,    1,  0,     0.000,     0.000,   0
   114,'1 ',   1,   1,   1,     0.000,     0.000,     8.454,     0.000,     0.000,    -3.153,   1,    1,  0,     0.000,     0.000,   0
   115,'1 ',   1,   1,   1,     0.000,     0.000,    23.270,     0.000,     0.000,    -7.379,   1,    1,  0,     0.000,     0.000,   0
   117,'1 ',   1,   1,   1,     0.000,     0.000,    21.055,     0.000,     0.000,    -8.351,   1,    1,  0,     0.000,     0.000,   0
   118,'1 ',   1,   1,   1,     0.000,     0.000,    33.359,     0.000,     0.000,   -15.328,   1,    1,  0,     0.000,     0.000,   0
0 / END OF LOAD DATA, BEGIN FIXED SHUNT DATA
@!   I,'ID',STATUS,  GL,        BL
    27,' 1',1,     0.000,    12.500
    82,' 1',1,     0.000,    37.583
0 / END OF FIXED SHUNT DATA, BEGIN GENERATOR DATA
@!   I,'ID',      PG,        QG,        QT,        QB,     VS,    IREG,     MBASE,     ZR,         ZX,         RT,         XT,     GTAP,STAT, RMPCT,      PT,        PB,    O1,    F1,  O2,    F2,  O3,    F3,  O4,    F4,WMOD, WPF,NREG
    12,'1 ',   300.000,   120.381,   216.000,  -144.000,1.02486,    12,   360.000, 0.00000E+0, 1.00000E+0, 0.00000E+0, 0.00000E+0,1.00000,1,  100.0, 10000.000,-10000.000,   1,1.0000
    19,'1 ',    30.000,    15.520,    24.000,   -16.000,0.99337,    19,    40.000, 0.00000E+0, 1.00000E+0, 0.00000E+0, 0.00000E+0,1.00000,1,  100.0, 10000.000,-10000.000,   1,1.0000
    31,'1 ',    30.000,    12.545,    24.000,   -16.000,0.99885,    31,    40.000, 0.00000E+0, 1.00000E+0, 0.00000E+0, 0.00000E+0,1.00000,1,  100.0, 10000.000,-10000.000,   1,1.0000
    32,'1 ',   100.000,    32.017,    72.000,   -48.000,1.01206,    32,   120.000, 0.00000E+0, 1.00000E+0, 0.00000E+0, 0.00000E+0,1.00000,1,  100.0, 10000.000,-10000.000,   1,1.0000
    34,'1 ',    30.000,    23.729,    30.000,   -20.000,1.01879,    34,    50.000, 0.00000E+0, 1.00000E+0, 0.00000E+0, 0.00000E+0,1.00000,1,  100.0, 10000.000,-10000.000,   1,1.0000
    36,'1 ',   100.000,    31.397,    72.000,   -48.000,1.02259,    36,   120.000, 0.00000E+0, 1.00000E+0, 0.00000E+0, 0.00000E+0,1.00000,1,  100.0, 10000.000,-10000.000,   1,1.0000
    40,'1 ',    30.000,     3.103,    24.000,   -16.000,0.99801,    40,    40.000, 0.00000E+0, 1.00000E+0, 0.00000E+0, 0.00000E+0,1.00000,1,  100.0, 10000.000,-10000.000,   1,1.0000
    46,'1 ',   100.000,    -6.257,    72.000,   -48.000,1.02000,    46,   120.000, 0.00000E+0, 1.00000E+0, 0.00000E+0, 0.00000E+0,1.00000,1,  100.0, 10000.000,-10000.000,   1,1.0000
    49,'1 ',   250.000,    85.682,   180.000,  -120.000,1.04000,    49,   300.000, 0.00000E+0, 1.00000E+0, 0.00000E+0, 0.00000E+0,1.00000,1,  100.0, 10000.000,-10000.000,   1,1.0000
    54,'1 ',   250.000,    72.516,   180.000,  -120.000,1.03000,    54,   300.000, 0.00000E+0, 1.00000E+0, 0.00000E+0, 0.00000E+0,1.00000,1,  100.0, 10000.000,-10000.000,   1,1.0000
    59,'1 ',   200.000,    33.890,   138.000,   -92.000,1.02000,    59,   230.000, 0.00000E+0, 1.00000E+0, 0.00000E+0, 0.00000E+0,1.00000,1,  100.0, 10000.000,-10000.000,   1,1.0000
    65,'1 ',   547.124,    41.570,   366.000,  -244.000,1.04000,    65,   610.000, 0.00000E+0, 1.00000E+0, 0.00000E+0, 0.00000E+0,1.00000,1,  100.0, 10000.000,-10000.000,   1,1.0000
    70,'1 ',    80.000,    32.255,    60.000,   -40.000,1.01765,    70,   100.000, 0.00000E+0, 1.00000E+0, 0.00000E+0, 0.00000E+0,1.00000,1,  100.0, 10000.000,-10000.000,   1,1.0000
    72,'1 ',    30.000,    -7.576,    24.000,   -16.000,1.02000,    72,    40.000, 0.00000E+0, 1.00000E+0, 0.00000E+0, 0.00000E+0,1.00000,1,  100.0, 10000.000,-10000.000,   1,1.0000
    73,'1 ',    30.000,    12.010,    24.000,   -16.000,1.03209,    73,    40.000, 0.00000E+0, 1.00000E+0, 0.00000E+0, 0.00000E+0,1.00000,1,  100.0, 10000.000,-10000.000,   1,1.0000
    76,'1 ',   100.000,    30.013,    72.000,   -48.000,0.99622,    76,   120.000, 0.00000E+0, 1.00000E+0, 0.00000E+0, 0.00000E+0,1.00000,1,  100.0, 10000.000,-10000.000,   1,1.0000
    77,'1 ',   100.000,    33.090,    78.000,   -52.000,1.00835,    77,   130.000, 0.00000E+0, 1.00000E+0, 0.00000E+0, 0.00000E+0,1.00000,1,  100.0, 10000.000,-10000.000,   1,1.0000
    80,'1 ',   300.000,    27.465,   204.000,  -136.000,1.02000,    80,   340.000, 0.00000E+0, 1.00000E+0, 0.00000E+0, 0.00000E+0,1.00000,1,  100.0, 10000.000,-10000.000,   1,1.0000
    85,'1 ',    30.000,    25.099,    30.000,   -20.000,1.01975,    85,    50.000, 0.00000E+0, 1.00000E+0, 0.00000E+0, 0.00000E+0,1.00000,1,  100.0, 10000.000,-10000.000,   1,1.0000
    89,'1 ',   200.000,    46.930,   138.000,   -92.000,1.04000,    89,   230.000, 0.00000E+0, 1.00000E+0, 0.00000E+0, 0.00000E+0,1.00000,1,  100.0, 10000.000,-10000.000,   1,1.0000
    90,'1 ',    20.000,    15.010,    18.000,   -12.000,1.02207,    90,    30.000, 0.00000E+0, 1.00000E+0, 0.00000E+0, 0.00000E+0,1.00000,1,  100.0, 10000.000,-10000.000,   1,1.0000
    92,'1 ',   300.000,   -30.937,   204.000,  -136.000,1.03000,    92,   340.000, 0.00000E+0, 1.00000E+0, 0.00000E+0, 0.00000E+0,1.00000,1,  100.0, 10000.000,-10000.000,   1,1.0000
   100,'1 ',   300.000,    67.595,   210.000,  -140.000,1.03000,   100,   350.000, 0.00000E+0, 1.00000E+0, 0.00000E+0, 0.00000E+0,1.00000,1,  100.0, 10000.000,-10000.000,   1,1.0000
   105,'1 ',   100.000,    22.995,    72.000,   -48.000,1.01723,   105,   120.000, 0.00000E+0, 1.00000E+0, 0.00000E+0, 0.00000E+0,1.00000,1,  100.0, 10000.000,-10000.000,   1,1.0000
   107,'1 ',    20.000,    15.002,    18.000,   -12.000,1.01964,   107,    30.000, 0.00000E+0, 1.00000E+0, 0.00000E+0, 0.00000E+0,1.00000,1,  100.0, 10000.000,-10000.000,   1,1.0000
   110,'1 ',    50.000,    22.999,    42.000,   -28.000,1.02701,   110,    70.000, 0.00000E+0, 1.00000E+0, 0.00000E+0, 0.00000E+0,1.00000,1,  100.0, 10000.000,-10000.000,   1,1.0000
   112,'1 ',   100.000,     3.603,    72.000,   -48.000,1.04000,   112,   120.000, 0.00000E+0, 1.00000E+0, 0.00000E+0, 0.00000E+0,1.00000,1,  100.0, 10000.000,-10000.000,   1,1.0000
   113,'1 ',   100.000,   -29.405,    72.000,   -48.000,1.02054,   113,   120.000, 0.00000E+0, 1.00000E+0, 0.00000E+0, 0.00000E+0,1.00000,1,  100.0, 10000.000,-10000.000,   1,1.0000
0 / END OF GENERATOR DATA, BEGIN BRANCH DATA
@!   I,     J,'CKT',     R,          X,         B,                    'N A M E'                 ,   RATE1,   RATE2,   RATE3,   RATE4,   RATE5,   RATE6,   RATE7,   RATE8,   RATE9,  RATE10,  RATE11,  RATE12,    GI,       BI,       GJ,       BJ,STAT,MET,  LEN,  O1,  F1,    O2,  F2,    O3,  F3,    O4,  F4
     1,     2,'1 ', 3.03000E-02, 9.99000E-02,   0.02540,'                                        ',    0.00,    0.00,    0.00,    0.00,    0.00,    0.00,    0.00,    0.00,    0.00,    0.00,    0.00,    0.00,  0.00000,  0.00000,  0.00000,  0.00000,1,1,   0.00,   1,1.0000
     1,     3,'1 ', 1.29000E-02, 4.24000E-02,   0.01082,'                                        ',    0.00,    0.00,    0.00,    0.00,    0.00,    0.00,    0.00,    0.00,    0.00,    0.00,    0.00,    0.00,  0.00000,  0.00000,  0.00000,  0.00000,1,1,   0.00,   1,1.0000
     2,    12,'1 ', 1.87000E-02, 6.16000E-02,   0.01572,'                                        ',    0.00,    0.00,    0.00,    0.00,    0.00,    0.00,    0.00,    0.00,    0.00,    0.00,    0.00,    0.00,  0.00000,  0.00000,  0.00000,  0.00000,1,1,   0.00,   1,1.0000
     3,     5,'1 ', 2.41000E-02, 1.08000E-01,   0.02840,'                                        ',    0.00,    0.00,    0.00,    0.00,    0.00,    0.00,    0.00,    0.00,    0.00,    0.00,    0.00,    0.00,  0.00000,  0.00000,  0.00000,  0.00000,1,1,   0.00,   1,1.0000
     3,    12,'1 ', 4.84000E-02, 1.60000E-01,   0.04060,'                                        ',    0.00,    0.00,    0.00,    0.00,    0.00,    0.00,    0.00,    0.00,    0.00,    0.00,    0.00,    0.00,  0.00000,  0.00000,  0.00000,  0.00000,1,1,   0.00,   1,1.0000
     4,     5,'1 ', 1.76000E-03, 7.98000E-03,   0.00210,'                                        ',    0.00,    0.00,    0.00,    0.00,    0.00,    0.00,    0.00,    0.00,    0.00,    0.00,    0.00,    0.00,  0.00000,  0.00000,  0.00000,  0.00000,1,1,   0.00,   1,1.0000
     4,    11,'1 ', 2.09000E-02, 6.88000E-02,   0.01748,'                                        ',    0.00,    0.00,    0.00,    0.00,    0.00,    0.00,    0.00,    0.00,    0.00,    0.00,    0.00,    0.00,  0.00000,  0.00000,  0.00000,  0.00000,1,1,   0.00,   1,1.0000
     5,     6,'1 ', 1.19000E-02, 5.40000E-02,   0.01426,'                                        ',    0.00,    0.00,    0.00,    0.00,    0.00,    0.00,    0.00,    0.00,    0.00,    0.00,    0.00,    0.00,  0.00000,  0.00000,  0.00000,  0.00000,1,1,   0.00,   1,1.0000
     5,    11,'1 ', 2.03000E-02, 6.82000E-02,   0.01738,'                                        ',    0.00,    0.00,    0.00,    0.00,    0.00,    0.00,    0.00,    0.00,    0.00,    0.00,    0.00,    0.00,  0.00000,  0.00000,  0.00000,  0.00000,1,1,   0.00,   1,1.0000
     6,     7,'1 ', 4.59000E-03, 2.08000E-02,   0.00550,'                                        ',    0.00,    0.00,    0.00,    0.00,    0.00,    0.00,    0.00,    0.00,    0.00,    0.00,    0.00,    0.00,  0.00000,  0.00000,  0.00000,  0.00000,1,1,   0.00,   1,1.0000
     7,    12,'1 ', 8.62000E-03, 3.40000E-02,   0.00874,'                                        ',    0.00,    0.00,    0.00,    0.00,    0.00,    0.00,    0.00,    0.00,    0.00,    0.00,    0.00,    0.00,  0.00000,  0.00000,  0.00000,  0.00000,1,1,   0.00,   1,1.0000
     8,    30,'1 ', 4.31000E-03, 5.04000E-02,   0.51400,'                                        ',    0.00,    0.00,    0.00,    0.00,    0.00,    0.00,    0.00,    0.00,    0.00,    0.00,    0.00,    0.00,  0.00000,  0.00000,  0.00000,  0.00000,1,1,   0.00,   1,1.0000
    11,    12,'1 ', 5.95000E-03, 1.96000E-02,   0.00502,'                                        ',    0.00,    0.00,    0.00,    0.00,    0.00,    0.00,    0.00,    0.00,    0.00,    0.00,    0.00,    0.00,  0.00000,  0.00000,  0.00000,  0.00000,1,1,   0.00,   1,1.0000
    11,    13,'1 ', 2.22500E-02, 7.31000E-02,   0.01876,'                                        ',    0.00,    0.00,    0.00,    0.00,    0.00,    0.00,    0.00,    0.00,    0.00,    0.00,    0.00,    0.00,  0.00000,  0.00000,  0.00000,  0.00000,1,1,   0.00,   1,1.0000
    12,    14,'1 ', 2.15000E-02, 7.07000E-02,   0.01816,'                                        ',    0.00,    0.00,    0.00,    0.00,    0.00,    0.00,    0.00,    0.00,    0.00,    0.00,    0.00,    0.00,  0.00000,  0.00000,  0.00000,  0.00000,1,1,   0.00,   1,1.0000
    12,    16,'1 ', 2.12000E-02, 8.34000E-02,   0.02140,'                                        ',    0.00,    0.00,    0.00,    0.00,    0.00,    0.00,    0.00,    0.00,    0.00,    0.00,    0.00,    0.00,  0.00000,  0.00000,  0.00000,  0.00000,1,1,   0.00,   1,1.0000
    12,   117,'1 ', 3.29000E-02, 1.40000E-01,   0.03580,'                                        ',    0.00,    0.00,    0.00,    0.00,    0.00,    0.00,    0.00,    0.00,    0.00,    0.00,    0.00,    0.00,  0.00000,  0.00000,  0.00000,  0.00000,1,1,   0.00,   1,1.0000
    13,    15,'1 ', 7.44000E-02, 2.44400E-01,   0.06268,'                                        ',    0.00,    0.00,    0.00,    0.00,    0.00,    0.00,    0.00,    0.00,    0.00,    0.00,    0.00,    0.00,  0.00000,  0.00000,  0.00000,  0.00000,1,1,   0.00,   1,1.0000
    14,    15,'1 ', 5.95000E-02, 1.95000E-01,   0.05020,'                                        ',    0.00,    0.00,    0.00,    0.00,    0.00,    0.00,    0.00,    0.00,    0.00,    0.00,    0.00,    0.00,  0.00000,  0.00000,  0.00000,  0.00000,1,1,   0.00,   1,1.0000
    15,    17,'1 ', 1.32000E-02, 4.37000E-02,   0.04440,'                                        ',    0.00,    0.00,    0.00,    0.00,    0.00,    0.00,    0.00,    0.00,    0.00,    0.00,    0.00,    0.00,  0.00000,  0.00000,  0.00000,  0.00000,1,1,   0.00,   1,1.0000
    15,    19,'1 ', 1.20000E-02, 3.94000E-02,   0.01010,'                                        ',    0.00,    0.00,    0.00,    0.00,    0.00,    0.00,    0.00,    0.00,    0.00,    0.00,    0.00,    0.00,  0.00000,  0.00000,  0.00000,  0.00000,1,1,   0.00,   1,1.0000
    15,    33,'1 ', 3.80000E-02, 1.24400E-01,   0.03194,'                                        ',    0.00,    0.00,    0.00,    0.00,    0.00,    0.00,    0.00,    0.00,    0.00,    0.00,    0.00,    0.00,  0.00000,  0.00000,  0.00000,  0.00000,1,1,   0.00,   1,1.0000
    16,    17,'1 ', 4.54000E-02, 1.80100E-01,   0.04660,'                                        ',    0.00,    0.00,    0.00,    0.00,    0.00,    0.00,    0.00,    0.00,    0.00,    0.00,    0.00,    0.00,  0.00000,  0.00000,  0.00000,  0.00000,1,1,   0.00,   1,1.0000
    17,    18,'1 ', 1.23000E-02, 5.05000E-02,   0.01298,'                                        ',    0.00,    0.00,    0.00,    0.00,    0.00,    0.00,    0.00,    0.00,    0.00,    0.00,    0.00,    0.00,  0.00000,  0.00000,  0.00000,  0.00000,1,1,   0.00,   1,1.0000
    17,    31,'1 ', 4.74000E-02, 1.56300E-01,   0.03990,'                                        ',    0.00,    0.00,    0.00,    0.00,    0.00,    0.00,    0.00,    0.00,    0.00,    0.00,    0.00,    0.00,  0.00000,  0.00000,  0.00000,  0.00000,1,1,   0.00,   1,1.0000
    17,   113,'1 ', 9.13000E-03, 3.01000E-02,   0.00768,'                                        ',    0.00,    0.00,    0.00,    0.00,    0.00,    0.00,    0.00,    0.00,    0.00,    0.00,    0.00,    0.00,  0.00000,  0.00000,  0.00000,  0.00000,1,1,   0.00,   1,1.0000
    18,    19,'1 ', 1.11900E-02, 4.93000E-02,   0.01142,'                                        ',    0.00,    0.00,    0.00,    0.00,    0.00,    0.00,    0.00,    0.00,    0.00,    0.00,    0.00,    0.00,  0.00000,  0.00000,  0.00000,  0.00000,1,1,   0.00,   1,1.0000
    19,    20,'1 ', 2.52000E-02, 1.17000E-01,   0.02980,'                                        ',    0.00,    0.00,    0.00,    0.00,    0.00,    0.00,    0.00,    0.00,    0.00,    0.00,    0.00,    0.00,  0.00000,  0.00000,  0.00000,  0.00000,1,1,   0.00,   1,1.0000
    19,    34,'1 ', 7.52000E-02, 2.47000E-01,   0.06320,'                                        ',    0.00,    0.00,    0.00,    0.00,    0.00,    0.00,    0.00,    0.00,    0.00,    0.00,    0.00,    0.00,  0.00000,  0.00000,  0.00000,  0.00000,1,1,   0.00,   1,1.0000
    20,    21,'1 ', 1.83000E-02, 8.49000E-02,   0.02160,'                                        ',    0.00,    0.00,    0.00,    0.00,    0.00,    0.00,    0.00,    0.00,    0.00,    0.00,    0.00,    0.00,  0.00000,  0.00000,  0.00000,  0.00000,1,1,   0.00,   1,1.0000
    21,    22,'1 ', 2.09000E-02, 9.70000E-02,   0.02460,'                                        ',    0.00,    0.00,    0.00,    0.00,    0.00,    0.00,    0.00,    0.00,    0.00,    0.00,    0.00,    0.00,  0.00000,  0.00000,  0.00000,  0.00000,1,1,   0.00,   1,1.0000
    22,    23,'1 ', 3.42000E-02, 1.59000E-01,   0.04040,'                                        ',    0.00,    0.00,    0.00,    0.00,    0.00,    0.00,    0.00,    0.00,    0.00,    0.00,    0.00,    0.00,  0.00000,  0.00000,  0.00000,  0.00000,1,1,   0.00,   1,1.0000
    23,    24,'1 ', 1.35000E-02, 4.92000E-02,   0.04980,'                                        ',    0.00,    0.00,    0.00,    0.00,    0.00,    0.00,    0.00,    0.00,    0.00,    0.00,    0.00,    0.00,  0.00000,  0.00000,  0.00000,  0.00000,1,1,   0.00,   1,1.0000
    23,    25,'1 ', 1.56000E-02, 8.00000E-02,   0.08640,'                                        ',    0.00,    0.00,    0.00,    0.00,    0.00,    0.00,    0.00,    0.00,    0.00,    0.00,    0.00,    0.00,  0.00000,  0.00000,  0.00000,  0.00000,1,1,   0.00,   1,1.0000
    23,    32,'1 ', 3.17000E-02, 1.15300E-01,   0.11730,'                                        ',    0.00,    0.00,    0.00,    0.00,    0.00,    0.00,    0.00,    0.00,    0.00,    0.00,    0.00,    0.00,  0.00000,  0.00000,  0.00000,  0.00000,1,1,   0.00,   1,1.0000
    24,    70,'1 ', 2.21000E-03, 4.11500E-01,   0.10198,'                                        ',    0.00,    0.00,    0.00,    0.00,    0.00,    0.00,    0.00,    0.00,    0.00,    0.00,    0.00,    0.00,  0.00000,  0.00000,  0.00000,  0.00000,1,1,   0.00,   1,1.0000
    24,    72,'1 ', 4.88000E-02, 1.96000E-01,   0.04880,'                                        ',    0.00,    0.00,    0.00,    0.00,    0.00,    0.00,    0.00,    0.00,    0.00,    0.00,    0.00,    0.00,  0.00000,  0.00000,  0.00000,  0.00000,1,1,   0.00,   1,1.0000
    25,    27,'1 ', 3.18000E-02, 1.63000E-01,   0.17640,'                                        ',    0.00,    0.00,    0.00,    0.00,    0.00,    0.00,    0.00,    0.00,    0.00,    0.00,    0.00,    0.00,  0.00000,  0.00000,  0.00000,  0.00000,1,1,   0.00,   1,1.0000
    26,    30,'1 ', 7.99000E-03, 8.60000E-02,   0.90800,'                                        ',    0.00,    0.00,    0.00,    0.00,    0.00,    0.00,    0.00,    0.00,    0.00,    0.00,    0.00,    0.00,  0.00000,  0.00000,  0.00000,  0.00000,1,1,   0.00,   1,1.0000
    27,    28,'1 ', 1.91300E-02, 8.55000E-02,   0.02160,'                                        ',    0.00,    0.00,    0.00,    0.00,    0.00,    0.00,    0.00,    0.00,    0.00,    0.00,    0.00,    0.00,  0.00000,  0.00000,  0.00000,  0.00000,1,1,   0.00,   1,1.0000
    27,    32,'1 ', 2.29000E-02, 7.55000E-02,   0.01926,'                                        ',    0.00,    0.00,    0.00,    0.00,    0.00,    0.00,    0.00,    0.00,    0.00,    0.00,    0.00,    0.00,  0.00000,  0.00000,  0.00000,  0.00000,1,1,   0.00,   1,1.0000
    27,   115,'1 ', 1.64000E-02, 7.41000E-02,   0.01972,'                                        ',    0.00,    0.00,    0.00,    0.00,    0.00,    0.00,    0.00,    0.00,    0.00,    0.00,    0.00,    0.00,  0.00000,  0.00000,  0.00000,  0.00000,1,1,   0.00,   1,1.0000
    28,    29,'1 ', 2.37000E-02, 9.43000E-02,   0.02380,'                                        ',    0.00,    0.00,    0.00,    0.00,    0.00,    0.00,    0.00,    0.00,    0.00,    0.00,    0.00,    0.00,  0.00000,  0.00000,  0.00000,  0.00000,1,1,   0.00,   1,1.0000
    29,    31,'1 ', 1.08000E-02, 3.31000E-02,   0.00830,'                                        ',    0.00,    0.00,    0.00,    0.00,    0.00,    0.00,    0.00,    0.00,    0.00,    0.00,    0.00,    0.00,  0.00000,  0.00000,  0.00000,  0.00000,1,1,   0.00,   1,1.0000
    30,    38,'1 ', 4.64000E-03, 5.40000E-02,   0.42200,'                                        ',    0.00,    0.00,    0.00,    0.00,    0.00,    0.00,    0.00,    0.00,    0.00,    0.00,    0.00,    0.00,  0.00000,  0.00000,  0.00000,  0.00000,1,1,   0.00,   1,1.0000
    31,    32,'1 ', 2.98000E-02, 9.85000E-02,   0.02510,'                                        ',    0.00,    0.00,    0.00,    0.00,    0.00,    0.00,    0.00,    0.00,    0.00,    0.00,    0.00,    0.00,  0.00000,  0.00000,  0.00000,  0.00000,1,1,   0.00,   1,1.0000
    32,   113,'1 ', 6.15000E-02, 2.03000E-01,   0.05180,'                                        ',    0.00,    0.00,    0.00,    0.00,    0.00,    0.00,    0.00,    0.00,    0.00,    0.00,    0.00,    0.00,  0.00000,  0.00000,  0.00000,  0.00000,1,1,   0.00,   1,1.0000
    32,   114,'1 ', 1.35000E-02, 6.12000E-02,   0.01628,'                                        ',    0.00,    0.00,    0.00,    0.00,    0.00,    0.00,    0.00,    0.00,    0.00,    0.00,    0.00,    0.00,  0.00000,  0.00000,  0.00000,  0.00000,1,1,   0.00,   1,1.0000
    33,    37,'1 ', 4.15000E-02, 1.42000E-01,   0.03660,'                                        ',    0.00,    0.00,    0.00,    0.00,    0.00,    0.00,    0.00,    0.00,    0.00,    0.00,    0.00,    0.00,  0.00000,  0.00000,  0.00000,  0.00000,1,1,   0.00,   1,1.0000
    34,    36,'1 ', 8.71000E-03, 2.68000E-02,   0.00568,'                                        ',    0.00,    0.00,    0.00,    0.00,    0.00,    0.00,    0.00,    0.00,    0.00,    0.00,    0.00,    0.00,  0.00000,  0.00000,  0.00000,  0.00000,1,1,   0.00,   1,1.0000
    34,    37,'1 ', 2.56000E-03, 9.40000E-03,   0.00984,'                                        ',    0.00,    0.00,    0.00,    0.00,    0.00,    0.00,    0.00,    0.00,    0.00,    0.00,    0.00,    0.00,  0.00000,  0.00000,  0.00000,  0.00000,1,1,   0.00,   1,1.0000
    34,    43,'1 ', 4.13000E-02, 1.68100E-01,   0.04226,'                                        ',    0.00,    0.00,    0.00,    0.00,    0.00,    0.00,    0.00,    0.00,    0.00,    0.00,    0.00,    0.00,  0.00000,  0.00000,  0.00000,  0.00000,1,1,   0.00,   1,1.0000
    35,    36,'1 ', 2.24000E-03, 1.02000E-02,   0.00268,'                                        ',    0.00,    0.00,    0.00,    0.00,    0.00,    0.00,    0.00,    0.00,    0.00,    0.00,    0.00,    0.00,  0.00000,  0.00000,  0.00000,  0.00000,1,1,   0.00,   1,1.0000
    35,    37,'1 ', 1.10000E-02, 4.97000E-02,   0.01318,'                                        ',    0.00,    0.00,    0.00,    0.00,    0.00,    0.00,    0.00,    0.00,    0.00,    0.00,    0.00,    0.00,  0.00000,  0.00000,  0.00000,  0.00000,1,1,   0.00,   1,1.0000
    37,    39,'1 ', 3.21000E-02, 1.06000E-01,   0.02700,'                                        ',    0.00,    0.00,    0.00,    0.00,    0.00,    0.00,    0.00,    0.00,    0.00,    0.00,    0.00,    0.00,  0.00000,  0.00000,  0.00000,  0.00000,1,1,   0.00,   1,1.0000
    37,    40,'1 ', 5.93000E-02, 1.68000E-01,   0.04200,'                                        ',    0.00,    0.00,    0.00,    0.00,    0.00,    0.00,    0.00,    0.00,    0.00,    0.00,    0.00,    0.00,  0.00000,  0.00000,  0.00000,  0.00000,1,1,   0.00,   1,1.0000
    38,    65,'1 ', 9.01000E-03, 9.86000E-02,   1.04600,'                                        ',    0.00,    0.00,    0.00,    0.00,    0.00,    0.00,    0.00,    0.00,    0.00,    0.00,    0.00,    0.00,  0.00000,  0.00000,  0.00000,  0.00000,1,1,   0.00,   1,1.0000
    39,    40,'1 ', 1.84000E-02, 6.05000E-02,   0.01552,'                                        ',    0.00,    0.00,    0.00,    0.00,    0.00,    0.00,    0.00,    0.00,    0.00,    0.00,    0.00,    0.00,  0.00000,  0.00000,  0.00000,  0.00000,1,1,   0.00,   1,1.0000
    40,    41,'1 ', 1.45000E-02, 4.87000E-02,   0.01222,'                                        ',    0.00,    0.00,    0.00,    0.00,    0.00,    0.00,    0.00,    0.00,    0.00,    0.00,    0.00,    0.00,  0.00000,  0.00000,  0.00000,  0.00000,1,1,   0.00,   1,1.0000
    40,    42,'1 ', 5.55000E-02, 1.83000E-01,   0.04660,'                                        ',    0.00,    0.00,    0.00,    0.00,    0.00,    0.00,    0.00,    0.00,    0.00,    0.00,    0.00,    0.00,  0.00000,  0.00000,  0.00000,  0.00000,1,1,   0.00,   1,1.0000
    41,    42,'1 ', 4.10000E-02, 1.35000E-01,   0.03440,'                                        ',    0.00,    0.00,    0.00,    0.00,    0.00,    0.00,    0.00,    0.00,    0.00,    0.00,    0.00,    0.00,  0.00000,  0.00000,  0.00000,  0.00000,1,1,   0.00,   1,1.0000
    42,    49,'1 ', 7.15000E-02, 3.23000E-01,   0.08600,'                                        ',    0.00,    0.00,    0.00,    0.00,    0.00,    0.00,    0.00,    0.00,    0.00,    0.00,    0.00,    0.00,  0.00000,  0.00000,  0.00000,  0.00000,1,1,   0.00,   1,1.0000
    42,    49,'2 ', 7.15000E-02, 3.23000E-01,   0.08600,'                                        ',    0.00,    0.00,    0.00,    0.00,    0.00,    0.00,    0.00,    0.00,    0.00,    0.00,    0.00,    0.00,  0.00000,  0.00000,  0.00000,  0.00000,1,1,   0.00,   1,1.0000
    43,    44,'1 ', 6.08000E-02, 2.45400E-01,   0.06068,'                                        ',    0.00,    0.00,    0.00,    0.00,    0.00,    0.00,    0.00,    0.00,    0.00,    0.00,    0.00,    0.00,  0.00000,  0.00000,  0.00000,  0.00000,1,1,   0.00,   1,1.0000
    44,    45,'1 ', 2.24000E-02, 9.01000E-02,   0.02240,'                                        ',    0.00,    0.00,    0.00,    0.00,    0.00,    0.00,    0.00,    0.00,    0.00,    0.00,    0.00,    0.00,  0.00000,  0.00000,  0.00000,  0.00000,1,1,   0.00,   1,1.0000
    45,    46,'1 ', 4.00000E-02, 1.35600E-01,   0.03320,'                                        ',    0.00,    0.00,    0.00,    0.00,    0.00,    0.00,    0.00,    0.00,    0.00,    0.00,    0.00,    0.00,  0.00000,  0.00000,  0.00000,  0.00000,1,1,   0.00,   1,1.0000
    45,    49,'1 ', 6.84000E-02, 1.86000E-01,   0.04440,'                                        ',    0.00,    0.00,    0.00,    0.00,    0.00,    0.00,    0.00,    0.00,    0.00,    0.00,    0.00,    0.00,  0.00000,  0.00000,  0.00000,  0.00000,1,1,   0.00,   1,1.0000
    46,    47,'1 ', 3.80000E-02, 1.27000E-01,   0.03160,'                                        ',    0.00,    0.00,    0.00,    0.00,    0.00,    0.00,    0.00,    0.00,    0.00,    0.00,    0.00,    0.00,  0.00000,  0.00000,  0.00000,  0.00000,1,1,   0.00,   1,1.0000
    46,    48,'1 ', 6.01000E-02, 1.89000E-01,   0.04720,'                                        ',    0.00,    0.00,    0.00,    0.00,    0.00,    0.00,    0.00,    0.00,    0.00,    0.00,    0.00,    0.00,  0.00000,  0.00000,  0.00000,  0.00000,1,1,   0.00,   1,1.0000
    47,    49,'1 ', 1.91000E-02, 6.25000E-02,   0.01604,'                                        ',    0.00,    0.00,    0.00,    0.00,    0.00,    0.00,    0.00,    0.00,    0.00,    0.00,    0.00,    0.00,  0.00000,  0.00000,  0.00000,  0.00000,1,1,   0.00,   1,1.0000
    47,    69,'1 ', 8.44000E-02, 2.77800E-01,   0.07092,'                                        ',    0.00,    0.00,    0.00,    0.00,    0.00,    0.00,    0.00,    0.00,    0.00,    0.00,    0.00,    0.00,  0.00000,  0.00000,  0.00000,  0.00000,1,1,   0.00,   1,1.0000
    48,    49,'1 ', 1.79000E-02, 5.05000E-02,   0.01258,'                                        ',    0.00,    0.00,    0.00,    0.00,    0.00,    0.00,    0.00,    0.00,    0.00,    0.00,    0.00,    0.00,  0.00000,  0.00000,  0.00000,  0.00000,1,1,   0.00,   1,1.0000
    49,    50,'1 ', 2.67000E-02, 7.52000E-02,   0.01874,'                                        ',    0.00,    0.00,    0.00,    0.00,    0.00,    0.00,    0.00,    0.00,    0.00,    0.00,    0.00,    0.00,  0.00000,  0.00000,  0.00000,  0.00000,1,1,   0.00,   1,1.0000
    49,    51,'1 ', 4.86000E-02, 1.37000E-01,   0.03420,'                                        ',    0.00,    0.00,    0.00,    0.00,    0.00,    0.00,    0.00,    0.00,    0.00,    0.00,    0.00,    0.00,  0.00000,  0.00000,  0.00000,  0.00000,1,1,   0.00,   1,1.0000
    49,    54,'1 ', 7.30000E-02, 2.89000E-01,   0.07380,'                                        ',    0.00,    0.00,    0.00,    0.00,    0.00,    0.00,    0.00,    0.00,    0.00,    0.00,    0.00,    0.00,  0.00000,  0.00000,  0.00000,  0.00000,1,1,   0.00,   1,1.0000
    49,    54,'2 ', 8.69000E-02, 2.91000E-01,   0.07300,'                                        ',    0.00,    0.00,    0.00,    0.00,    0.00,    0.00,    0.00,    0.00,    0.00,    0.00,    0.00,    0.00,  0.00000,  0.00000,  0.00000,  0.00000,1,1,   0.00,   1,1.0000
    49,    66,'1 ', 1.80000E-02, 9.19000E-02,   0.02480,'                                        ',    0.00,    0.00,    0.00,    0.00,    0.00,    0.00,    0.00,    0.00,    0.00,    0.00,    0.00,    0.00,  0.00000,  0.00000,  0.00000,  0.00000,1,1,   0.00,   1,1.0000
    49,    66,'2 ', 1.80000E-02, 9.19000E-02,   0.02480,'                                        ',    0.00,    0.00,    0.00,    0.00,    0.00,    0.00,    0.00,    0.00,    0.00,    0.00,    0.00,    0.00,  0.00000,  0.00000,  0.00000,  0.00000,1,1,   0.00,   1,1.0000
    49,    69,'1 ', 9.85000E-02, 3.24000E-01,   0.08280,'                                        ',    0.00,    0.00,    0.00,    0.00,    0.00,    0.00,    0.00,    0.00,    0.00,    0.00,    0.00,    0.00,  0.00000,  0.00000,  0.00000,  0.00000,1,1,   0.00,   1,1.0000
    50,    57,'1 ', 4.74000E-02, 1.34000E-01,   0.03320,'                                        ',    0.00,    0.00,    0.00,    0.00,    0.00,    0.00,    0.00,    0.00,    0.00,    0.00,    0.00,    0.00,  0.00000,  0.00000,  0.00000,  0.00000,1,1,   0.00,   1,1.0000
    51,    52,'1 ', 2.03000E-02, 5.88000E-02,   0.01396,'                                        ',    0.00,    0.00,    0.00,    0.00,    0.00,    0.00,    0.00,    0.00,    0.00,    0.00,    0.00,    0.00,  0.00000,  0.00000,  0.00000,  0.00000,1,1,   0.00,   1,1.0000
    51,    58,'1 ', 2.55000E-02, 7.19000E-02,   0.01788,'                                        ',    0.00,    0.00,    0.00,    0.00,    0.00,    0.00,    0.00,    0.00,    0.00,    0.00,    0.00,    0.00,  0.00000,  0.00000,  0.00000,  0.00000,1,1,   0.00,   1,1.0000
    52,    53,'1 ', 4.05000E-02, 1.63500E-01,   0.04058,'                                        ',    0.00,    0.00,    0.00,    0.00,    0.00,    0.00,    0.00,    0.00,    0.00,    0.00,    0.00,    0.00,  0.00000,  0.00000,  0.00000,  0.00000,1,1,   0.00,   1,1.0000
    53,    54,'1 ', 2.63000E-02, 1.22000E-01,   0.03100,'                                        ',    0.00,    0.00,    0.00,    0.00,    0.00,    0.00,    0.00,    0.00,    0.00,    0.00,    0.00,    0.00,  0.00000,  0.00000,  0.00000,  0.00000,1,1,   0.00,   1,1.0000
    54,    55,'1 ', 1.69000E-02, 7.07000E-02,   0.02020,'                                        ',    0.00,    0.00,    0.00,    0.00,    0.00,    0.00,    0.00,    0.00,    0.00,    0.00,    0.00,    0.00,  0.00000,  0.00000,  0.00000,  0.00000,1,1,   0.00,   1,1.0000
    54,    56,'1 ', 2.75000E-03, 9.55000E-03,   0.00732,'                                        ',    0.00,    0.00,    0.00,    0.00,    0.00,    0.00,    0.00,    0.00,    0.00,    0.00,    0.00,    0.00,  0.00000,  0.00000,  0.00000,  0.00000,1,1,   0.00,   1,1.0000
    54,    59,'1 ', 5.03000E-02, 2.29300E-01,   0.05980,'                                        ',    0.00,    0.00,    0.00,    0.00,    0.00,    0.00,    0.00,    0.00,    0.00,    0.00,    0.00,    0.00,  0.00000,  0.00000,  0.00000,  0.00000,1,1,   0.00,   1,1.0000
    55,    56,'1 ', 4.88000E-03, 1.51000E-02,   0.00374,'                                        ',    0.00,    0.00,    0.00,    0.00,    0.00,    0.00,    0.00,    0.00,    0.00,    0.00,    0.00,    0.00,  0.00000,  0.00000,  0.00000,  0.00000,1,1,   0.00,   1,1.0000
    55,    59,'1 ', 4.73900E-02, 2.15800E-01,   0.05646,'                                        ',    0.00,    0.00,    0.00,    0.00,    0.00,    0.00,    0.00,    0.00,    0.00,    0.00,    0.00,    0.00,  0.00000,  0.00000,  0.00000,  0.00000,1,1,   0.00,   1,1.0000
    56,    57,'1 ', 3.43000E-02, 9.66000E-02,   0.02420,'                                        ',    0.00,    0.00,    0.00,    0.00,    0.00,    0.00,    0.00,    0.00,    0.00,    0.00,    0.00,    0.00,  0.00000,  0.00000,  0.00000,  0.00000,1,1,   0.00,   1,1.0000
    56,    58,'1 ', 3.43000E-02, 9.66000E-02,   0.02420,'                                        ',    0.00,    0.00,    0.00,    0.00,    0.00,    0.00,    0.00,    0.00,    0.00,    0.00,    0.00,    0.00,  0.00000,  0.00000,  0.00000,  0.00000,1,1,   0.00,   1,1.0000
    56,    59,'1 ', 8.25000E-02, 2.51000E-01,   0.05690,'                                        ',    0.00,    0.00,    0.00,    0.00,    0.00,    0.00,    0.00,    0.00,    0.00,    0.00,    0.00,    0.00,  0.00000,  0.00000,  0.00000,  0.00000,1,1,   0.00,   1,1.0000
    56,    59,'2 ', 8.03000E-02, 2.39000E-01,   0.05360,'                                        ',    0.00,    0.00,    0.00,    0.00,    0.00,    0.00,    0.00,    0.00,    0.00,    0.00,    0.00,    0.00,  0.00000,  0.00000,  0.00000,  0.00000,1,1,   0.00,   1,1.0000
    59,    60,'1 ', 3.17000E-02, 1.45000E-01,   0.03760,'                                        ',    0.00,    0.00,    0.00,    0.00,    0.00,    0.00,    0.00,    0.00,    0.00,    0.00,    0.00,    0.00,  0.00000,  0.00000,  0.00000,  0.00000,1,1,   0.00,   1,1.0000
    59,    61,'1 ', 3.28000E-02, 1.50000E-01,   0.03880,'                                        ',    0.00,    0.00,    0.00,    0.00,    0.00,    0.00,    0.00,    0.00,    0.00,    0.00,    0.00,    0.00,  0.00000,  0.00000,  0.00000,  0.00000,1,1,   0.00,   1,1.0000
    60,    61,'1 ', 2.64000E-03, 1.35000E-02,   0.01456,'                                        ',    0.00,    0.00,    0.00,    0.00,    0.00,    0.00,    0.00,    0.00,    0.00,    0.00,    0.00,    0.00,  0.00000,  0.00000,  0.00000,  0.00000,1,1,   0.00,   1,1.0000
    60,    62,'1 ', 1.23000E-02, 5.61000E-02,   0.01468,'                                        ',    0.00,    0.00,    0.00,    0.00,    0.00,    0.00,    0.00,    0.00,    0.00,    0.00,    0.00,    0.00,  0.00000,  0.00000,  0.00000,  0.00000,1,1,   0.00,   1,1.0000
    61,    62,'1 ', 8.24000E-03, 3.76000E-02,   0.00980,'                                        ',    0.00,    0.00,    0.00,    0.00,    0.00,    0.00,    0.00,    0.00,    0.00,    0.00,    0.00,    0.00,  0.00000,  0.00000,  0.00000,  0.00000,1,1,   0.00,   1,1.0000
    62,    66,'1 ', 4.82000E-02, 2.18000E-01,   0.05780,'                                        ',    0.00,    0.00,    0.00,    0.00,    0.00,    0.00,    0.00,    0.00,    0.00,    0.00,    0.00,    0.00,  0.00000,  0.00000,  0.00000,  0.00000,1,1,   0.00,   1,1.0000
    62,    67,'1 ', 2.58000E-02, 1.17000E-01,   0.03100,'                                        ',    0.00,    0.00,    0.00,    0.00,    0.00,    0.00,    0.00,    0.00,    0.00,    0.00,    0.00,    0.00,  0.00000,  0.00000,  0.00000,  0.00000,1,1,   0.00,   1,1.0000
    63,    64,'1 ', 1.72000E-03, 2.00000E-02,   0.21600,'                                        ',    0.00,    0.00,    0.00,    0.00,    0.00,    0.00,    0.00,    0.00,    0.00,    0.00,    0.00,    0.00,  0.00000,  0.00000,  0.00000,  0.00000,1,1,   0.00,   1,1.0000
    64,    65,'1 ', 2.69000E-03, 3.02000E-02,   0.38000,'                                        ',    0.00,    0.00,    0.00,    0.00,    0.00,    0.00,    0.00,    0.00,    0.00,    0.00,    0.00,    0.00,  0.00000,  0.00000,  0.00000,  0.00000,1,1,   0.00,   1,1.0000
    65,    68,'1 ', 1.38000E-03, 1.60000E-02,   0.63800,'                                        ',    0.00,    0.00,    0.00,    0.00,    0.00,    0.00,    0.00,    0.00,    0.00,    0.00,    0.00,    0.00,  0.00000,  0.00000,  0.00000,  0.00000,1,1,   0.00,   1,1.0000
    66,    67,'1 ', 2.24000E-02, 1.01500E-01,   0.02682,'                                        ',    0.00,    0.00,    0.00,    0.00,    0.00,    0.00,    0.00,    0.00,    0.00,    0.00,    0.00,    0.00,  0.00000,  0.00000,  0.00000,  0.00000,1,1,   0.00,   1,1.0000
    68,    81,'1 ', 1.75000E-03, 2.02000E-02,   0.80800,'                                        ',    0.00,    0.00,    0.00,    0.00,    0.00,    0.00,    0.00,    0.00,    0.00,    0.00,    0.00,    0.00,  0.00000,  0.00000,  0.00000,  0.00000,1,1,   0.00,   1,1.0000
    69,    70,'1 ', 3.00000E-02, 1.27000E-01,   0.12200,'                                        ',    0.00,    0.00,    0.00,    0.00,    0.00,    0.00,    0.00,    0.00,    0.00,    0.00,    0.00,    0.00,  0.00000,  0.00000,  0.00000,  0.00000,1,1,   0.00,   1,1.0000
    69,    75,'1 ', 4.05000E-02, 1.22000E-01,   0.12400,'                                        ',    0.00,    0.00,    0.00,    0.00,    0.00,    0.00,    0.00,    0.00,    0.00,    0.00,    0.00,    0.00,  0.00000,  0.00000,  0.00000,  0.00000,1,1,   0.00,   1,1.0000
...